* EQUIVALENT CIRCUIT FOR VECTOR FITTED S-MATRIX
* Created using scikit-rf vectorFitting.py

.SUBCKT s_equivalent p1 p2 p3 p4 p5 p6 p7 p8 p9 p10 p11 p12 p13 p14 p15 p16

* Port network for port 1
R_ref_1 p1 a1 50.0
H_b_1 a1 0 V_c_1 14.142135623730951
* Differential incident wave a sources for transfer from port 1
H_p_1 nt_p_1 nts_p_1 H_b_1 3.5355339059327378
E_p_1 nts_p_1 0 p1 0 0.07071067811865475
E_n_1 0 nt_n_1 nt_p_1 0 1
* Current sensor on center node for transfer to port 1
V_c_1 nt_c_1 0 0
* Transfer network from port 1 to port 1
R1_1 nt_n_1 nt_c_1 3.055402905354145
X1 nt_n_1 nt_c_1 rl_admittance res=1.565082328677509 ind=1.3504716875466727e-07
X2 nt_n_1 nt_c_1 rl_admittance res=20.133594041960766 ind=7.695994849647124e-06
X3 nt_p_1 nt_c_1 rl_admittance res=40.50019708855462 ind=3.3998907307601685e-05
X4 nt_n_1 nt_c_1 rl_admittance res=10.606969280684247 ind=0.0003605354379150948
X5 nt_n_1 nt_c_1 rl_admittance res=1.7975956305765248 ind=0.006978706827625781
X6 nt_p_1 nt_c_1 rl_admittance res=1.555726829308897 ind=0.0005181830411010667
* Transfer network from port 2 to port 1
R1_2 nt_p_2 nt_c_1 3.426694989774083
X7 nt_n_2 nt_c_1 rl_admittance res=5.0675924306232725 ind=4.37270294104299e-07
X8 nt_n_2 nt_c_1 rl_admittance res=8.513155152907448 ind=3.254123336075868e-06
X9 nt_p_2 nt_c_1 rl_admittance res=29.19841415943021 ind=2.4511341867419552e-05
X10 nt_n_2 nt_c_1 rl_admittance res=6.835930685348445 ind=0.00023235621768863526
X11 nt_n_2 nt_c_1 rl_admittance res=0.9997197099492963 ind=0.0038811569447894326
X12 nt_p_2 nt_c_1 rl_admittance res=0.8808329569905541 ind=0.0002933887182225766
* Transfer network from port 3 to port 1
R1_3 nt_p_3 nt_c_1 4.441547277752228
X13 nt_n_3 nt_c_1 rl_admittance res=9.905803881729998 ind=8.547478582785004e-07
X14 nt_n_3 nt_c_1 rl_admittance res=6.657668273708107 ind=2.544870063354409e-06
X15 nt_p_3 nt_c_1 rl_admittance res=24.950549841456667 ind=2.094536551213744e-05
X16 nt_n_3 nt_c_1 rl_admittance res=5.320492058717085 ind=0.00018084580840698028
X17 nt_n_3 nt_c_1 rl_admittance res=0.7658650925023123 ind=0.0029732760022185686
X18 nt_p_3 nt_c_1 rl_admittance res=0.6758614717322284 ind=0.00022511661185455517
* Transfer network from port 4 to port 1
R1_4 nt_p_4 nt_c_1 255.40275618332888
X19 nt_n_4 nt_c_1 rl_admittance res=1134.2397565357935 ind=9.787080526209458e-05
X20 nt_n_4 nt_c_1 rl_admittance res=147.65379975650816 ind=5.644014079595739e-05
X21 nt_p_4 nt_c_1 rl_admittance res=239.05992722473442 ind=0.00020068485812313897
X22 nt_n_4 nt_c_1 rl_admittance res=91.00100322070332 ind=0.003093163153270935
X23 nt_n_4 nt_c_1 rl_admittance res=16.831908392482656 ind=0.06534559387136306
X24 nt_p_4 nt_c_1 rl_admittance res=14.294722426174646 ind=0.004761300376738599
* Transfer network from port 5 to port 1
R1_5 nt_n_5 nt_c_1 31.895342935666037
X25 nt_p_5 nt_c_1 rl_admittance res=8.70792321243188 ind=7.513856325792605e-07
X26 nt_n_5 nt_c_1 rl_admittance res=10.476397025500848 ind=4.004565572499293e-06
X27 nt_p_5 nt_c_1 rl_admittance res=47.79808687651375 ind=4.0125304122397295e-05
X28 nt_n_5 nt_c_1 rl_admittance res=8.158140232045698 ind=0.00027729868761754427
X29 nt_n_5 nt_c_1 rl_admittance res=1.116984773206068 ind=0.004336408661956513
X30 nt_p_5 nt_c_1 rl_admittance res=0.9911881113390945 ind=0.0003301459228964249
* Transfer network from port 6 to port 1
R1_6 nt_n_6 nt_c_1 21.076833559021495
X31 nt_p_6 nt_c_1 rl_admittance res=6.109993407294386 ind=5.27216553177767e-07
X32 nt_n_6 nt_c_1 rl_admittance res=7.198365463670849 ind=2.7515496447793397e-06
X33 nt_p_6 nt_c_1 rl_admittance res=28.392200304187178 ind=2.383454540456337e-05
X34 nt_n_6 nt_c_1 rl_admittance res=5.830295211371626 ind=0.00019817423635175733
X35 nt_n_6 nt_c_1 rl_admittance res=0.8296557158751231 ind=0.003220926837199494
X36 nt_p_6 nt_c_1 rl_admittance res=0.7329681351740535 ind=0.00024413775616596723
* Transfer network from port 7 to port 1
R1_7 nt_n_7 nt_c_1 20.442005627247223
X37 nt_p_7 nt_c_1 rl_admittance res=20.902369937839318 ind=1.8036149464118827e-06
X38 nt_p_7 nt_c_1 rl_admittance res=418.1033890288166 ind=0.0001598185362176108
X39 nt_n_7 nt_c_1 rl_admittance res=487.0298192931957 ind=0.00040884940994192836
X40 nt_p_7 nt_c_1 rl_admittance res=111.29034794141766 ind=0.003782806687660541
X41 nt_p_7 nt_c_1 rl_admittance res=16.502908991013452 ind=0.06406833755728226
X42 nt_n_7 nt_c_1 rl_admittance res=14.52602462237651 ind=0.004838342742521081
* Transfer network from port 8 to port 1
R1_8 nt_n_8 nt_c_1 21.135208598873287
X43 nt_p_8 nt_c_1 rl_admittance res=27.412261434985673 ind=2.365337738549323e-06
X44 nt_p_8 nt_c_1 rl_admittance res=76.18582272880558 ind=2.9121760283585987e-05
X45 nt_n_8 nt_c_1 rl_admittance res=288.32487675917 ind=0.00024204155693308856
X46 nt_p_8 nt_c_1 rl_admittance res=64.56543883182214 ind=0.002194606974661626
X47 nt_p_8 nt_c_1 rl_admittance res=9.555668361820281 ind=0.0370974466697915
X48 nt_n_8 nt_c_1 rl_admittance res=8.406102610189041 ind=0.002799913026048667
* Transfer network from port 9 to port 1
R1_9 nt_p_9 nt_c_1 6.008260165842241
X49 nt_n_9 nt_c_1 rl_admittance res=206.56807492333104 ind=1.7824259569188454e-05
X50 nt_n_9 nt_c_1 rl_admittance res=4.369492309650421 ind=1.670222923962732e-06
X51 nt_p_9 nt_c_1 rl_admittance res=11.421088765188914 ind=9.58771971974635e-06
X52 nt_n_9 nt_c_1 rl_admittance res=3.9354441554419886 ind=0.00013376743577041337
X53 nt_n_9 nt_c_1 rl_admittance res=0.6931964771770818 ind=0.0026911586264872704
X54 nt_p_9 nt_c_1 rl_admittance res=0.5965167860048198 ind=0.00019868840494132633
* Transfer network from port 10 to port 1
R1_10 nt_n_10 nt_c_1 36.326812927233185
X55 nt_p_10 nt_c_1 rl_admittance res=13.452724127200316 ind=1.160803027500257e-06
X56 nt_n_10 nt_c_1 rl_admittance res=37.86815320119619 ind=1.4474967131783496e-05
X57 nt_n_10 nt_c_1 rl_admittance res=49.36951526516557 ind=4.144447913800248e-05
X58 nt_n_10 nt_c_1 rl_admittance res=106.29908651629562 ind=0.003613151569781383
X59 nt_n_10 nt_c_1 rl_admittance res=6.579332639499831 ind=0.0255425818974497
X60 nt_p_10 nt_c_1 rl_admittance res=6.201359946230818 ind=0.002065555144618637
* Transfer network from port 11 to port 1
R1_11 nt_n_11 nt_c_1 16.220957163938962
X61 nt_p_11 nt_c_1 rl_admittance res=5.28468649405648 ind=4.5600281576331894e-07
X62 nt_n_11 nt_c_1 rl_admittance res=14.496564596447781 ind=5.541260355171731e-06
X63 nt_n_11 nt_c_1 rl_admittance res=15.875665140189273 ind=1.3327225701337477e-05
X64 nt_p_11 nt_c_1 rl_admittance res=18.99926218067671 ind=0.0006457930752046163
X65 nt_p_11 nt_c_1 rl_admittance res=8.102047186888242 ind=0.03145413298693274
X66 nt_n_11 nt_c_1 rl_admittance res=5.825308378502527 ind=0.0019402995140637318
* Transfer network from port 12 to port 1
R1_12 nt_n_12 nt_c_1 34.84890712168378
X67 nt_p_12 nt_c_1 rl_admittance res=37.191884769599184 ind=3.209197782603766e-06
X68 nt_p_12 nt_c_1 rl_admittance res=83.01733110565019 ind=3.173308010924376e-05
X69 nt_n_12 nt_c_1 rl_admittance res=112.42272148507507 ind=9.437607621222066e-05
X70 nt_n_12 nt_c_1 rl_admittance res=41.382723878587186 ind=0.0014066165443559586
X71 nt_n_12 nt_c_1 rl_admittance res=4.487320520567812 ind=0.017420878100704047
X72 nt_p_12 nt_c_1 rl_admittance res=4.070472154262086 ind=0.0013557969174766587
* Transfer network from port 13 to port 1
R1_13 nt_n_13 nt_c_1 16.3478467890042
X73 nt_p_13 nt_c_1 rl_admittance res=9.30808184900769 ind=8.031718697554935e-07
X74 nt_n_13 nt_c_1 rl_admittance res=190.23771085704544 ind=7.271768964414354e-05
X75 nt_n_13 nt_c_1 rl_admittance res=22.239444620974364 ind=1.8669460165534045e-05
X76 nt_p_13 nt_c_1 rl_admittance res=22.22614011959369 ind=0.0007554760411885568
X77 nt_p_13 nt_c_1 rl_admittance res=9.432199066797386 ind=0.03661810860425445
X78 nt_n_13 nt_c_1 rl_admittance res=6.800268485565257 ind=0.0022650401971400893
* Transfer network from port 14 to port 1
R1_14 nt_n_14 nt_c_1 14.555956665707876
X79 nt_p_14 nt_c_1 rl_admittance res=8.98925428764408 ind=7.756610106178191e-07
X80 nt_p_14 nt_c_1 rl_admittance res=91.04055464134191 ind=3.4799928823862905e-05
X81 nt_n_14 nt_c_1 rl_admittance res=19.674947078207946 ind=1.651662831495207e-05
X82 nt_n_14 nt_c_1 rl_admittance res=18.36911827518103 ind=0.0006243742134255845
X83 nt_n_14 nt_c_1 rl_admittance res=1.4270106482155747 ind=0.005540005095919582
X84 nt_p_14 nt_c_1 rl_admittance res=1.3288974800799649 ind=0.0004426304956412455
* Transfer network from port 15 to port 1
R1_15 nt_p_15 nt_c_1 38.75487733078962
X85 nt_n_15 nt_c_1 rl_admittance res=69.80399782301572 ind=6.023218140684573e-06
X86 nt_n_15 nt_c_1 rl_admittance res=73.17510229100023 ind=2.7970923084088108e-05
X87 nt_p_15 nt_c_1 rl_admittance res=297.14260325091504 ind=0.0002494438188282867
X88 nt_n_15 nt_c_1 rl_admittance res=64.73140214301571 ind=0.002200248138833562
X89 nt_n_15 nt_c_1 rl_admittance res=9.381582334077214 ind=0.03642160204170061
X90 nt_p_15 nt_c_1 rl_admittance res=8.273805721497194 ind=0.002755847446655783
* Transfer network from port 16 to port 1
R1_16 nt_n_16 nt_c_1 23.87622256925236
X91 nt_p_16 nt_c_1 rl_admittance res=26.837078504804023 ind=2.315706594670341e-06
X92 nt_p_16 nt_c_1 rl_admittance res=136.55084304699977 ind=5.2196075008490575e-05
X93 nt_n_16 nt_c_1 rl_admittance res=269.147285290839 ind=0.00022594244627223949
X94 nt_p_16 nt_c_1 rl_admittance res=83.20287728414604 ind=0.0028281015060600202
X95 nt_p_16 nt_c_1 rl_admittance res=13.335713205362934 ind=0.05177250723939369
X96 nt_n_16 nt_c_1 rl_admittance res=11.62892373205639 ind=0.003873373493781197

* Port network for port 2
R_ref_2 p2 a2 50.0
H_b_2 a2 0 V_c_2 14.142135623730951
* Differential incident wave a sources for transfer from port 2
H_p_2 nt_p_2 nts_p_2 H_b_2 3.5355339059327378
E_p_2 nts_p_2 0 p2 0 0.07071067811865475
E_n_2 0 nt_n_2 nt_p_2 0 1
* Current sensor on center node for transfer to port 2
V_c_2 nt_c_2 0 0
* Transfer network from port 1 to port 2
R2_1 nt_p_1 nt_c_2 3.4271018314698125
X97 nt_n_1 nt_c_2 rl_admittance res=5.068597789467925 ind=4.373570440873926e-07
X98 nt_n_1 nt_c_2 rl_admittance res=8.51316124170822 ind=3.2541256634983484e-06
X99 nt_p_1 nt_c_2 rl_admittance res=29.201049666010988 ind=2.4513554309589955e-05
X100 nt_n_1 nt_c_2 rl_admittance res=6.834499729406777 ind=0.00023230757888207193
X101 nt_n_1 nt_c_2 rl_admittance res=0.9995213821731511 ind=0.0038803869877524055
X102 nt_p_1 nt_c_2 rl_admittance res=0.8806563905015528 ind=0.0002933299072806402
* Transfer network from port 2 to port 2
R2_2 nt_p_2 nt_c_2 27.215048698946276
X103 nt_n_2 nt_c_2 rl_admittance res=1.1073020043855104 ind=9.55464117820502e-08
X104 nt_n_2 nt_c_2 rl_admittance res=6.025363975621816 ind=2.303173990048268e-06
X105 nt_p_2 nt_c_2 rl_admittance res=18.189006641347113 ind=1.5269218306872734e-05
X106 nt_n_2 nt_c_2 rl_admittance res=3.473720253045889 ind=0.00011807324217551069
X107 nt_n_2 nt_c_2 rl_admittance res=0.4875495635633539 ind=0.0018927869038902307
X108 nt_p_2 nt_c_2 rl_admittance res=0.43153898353159414 ind=0.00014373743425084593
* Transfer network from port 3 to port 2
R2_3 nt_p_3 nt_c_2 2.971640910246832
X109 nt_n_3 nt_c_2 rl_admittance res=10.136476182596157 ind=8.746520132046011e-07
X110 nt_n_3 nt_c_2 rl_admittance res=3.4945263433776206 ind=1.3357702894247505e-06
X111 nt_p_3 nt_c_2 rl_admittance res=12.99674996707837 ind=1.0910448076699532e-05
X112 nt_n_3 nt_c_2 rl_admittance res=2.5738351952249046 ind=8.748576286739586e-05
X113 nt_n_3 nt_c_2 rl_admittance res=0.3552120716128951 ind=0.0013790203242900459
X114 nt_p_3 nt_c_2 rl_admittance res=0.3149503526475093 ind=0.00010490397700683686
* Transfer network from port 4 to port 2
R2_4 nt_p_4 nt_c_2 31.78444946680438
X115 nt_n_4 nt_c_2 rl_admittance res=36.467565811131365 ind=3.1466980515518764e-06
X116 nt_n_4 nt_c_2 rl_admittance res=85.18167976491611 ind=3.256039470095731e-05
X117 nt_p_4 nt_c_2 rl_admittance res=111.0093975468776 ind=9.318962594716824e-05
X118 nt_n_4 nt_c_2 rl_admittance res=33.37824745077181 ind=0.001134540955390238
X119 nt_n_4 nt_c_2 rl_admittance res=5.3067391526186425 ind=0.020602062069393863
X120 nt_p_4 nt_c_2 rl_admittance res=4.606370196687675 ind=0.0015342943709579747
* Transfer network from port 5 to port 2
R2_5 nt_p_5 nt_c_2 6.175188687232657
X121 nt_p_5 nt_c_2 rl_admittance res=358.3751952847086 ind=3.092332881682761e-05
X122 nt_n_5 nt_c_2 rl_admittance res=5.191885744686813 ind=1.9845798950645147e-06
X123 nt_p_5 nt_c_2 rl_admittance res=21.010543110538933 ind=1.7637827937865863e-05
X124 nt_n_5 nt_c_2 rl_admittance res=3.71434145604034 ind=0.0001262520601297817
X125 nt_n_5 nt_c_2 rl_admittance res=0.5012913500972411 ind=0.0019461358873193117
X126 nt_p_5 nt_c_2 rl_admittance res=0.4455615195213491 ind=0.00014840807449836824
* Transfer network from port 6 to port 2
R2_6 nt_n_6 nt_c_2 29.656860802897047
X127 nt_p_6 nt_c_2 rl_admittance res=3.7473182356940384 ind=3.233470271054931e-07
X128 nt_n_6 nt_c_2 rl_admittance res=3.536594751271808 ind=1.3518507890023107e-06
X129 nt_p_6 nt_c_2 rl_admittance res=12.894988529656187 ind=1.0825021883072864e-05
X130 nt_n_6 nt_c_2 rl_admittance res=2.5961925129527197 ind=8.824569769178377e-05
X131 nt_n_6 nt_c_2 rl_admittance res=0.3593573131894268 ind=0.0013951131680866357
X132 nt_p_6 nt_c_2 rl_admittance res=0.3184718481650312 ind=0.0001060769202396176
* Transfer network from port 7 to port 2
R2_7 nt_p_7 nt_c_2 19.57862671120745
X133 nt_n_7 nt_c_2 rl_admittance res=17.339291424840226 ind=1.4961655193662678e-06
X134 nt_p_7 nt_c_2 rl_admittance res=121.93155078285199 ind=4.66079024380154e-05
X135 nt_n_7 nt_c_2 rl_admittance res=389.81518254989777 ind=0.0003272401423042752
X136 nt_p_7 nt_c_2 rl_admittance res=78.92401581686946 ind=0.0026826611684800977
X137 nt_p_7 nt_c_2 rl_admittance res=10.739990381500094 ind=0.041695275026882195
X138 nt_n_7 nt_c_2 rl_admittance res=9.54016463694869 ind=0.003177647534930672
* Transfer network from port 8 to port 2
R2_8 nt_n_8 nt_c_2 12.672289491521822
X139 nt_p_8 nt_c_2 rl_admittance res=16.445137699203475 ind=1.4190111570262898e-06
X140 nt_p_8 nt_c_2 rl_admittance res=46.79986869175787 ind=1.7889083671066902e-05
X141 nt_n_8 nt_c_2 rl_admittance res=186.77727744652282 ind=0.00015679487507642547
X142 nt_p_8 nt_c_2 rl_admittance res=35.85409800256855 ind=0.0012186961781766271
X143 nt_p_8 nt_c_2 rl_admittance res=5.031148035925612 ind=0.0195321498071562
X144 nt_n_8 nt_c_2 rl_admittance res=4.453110666116599 ind=0.00148324653393872
* Transfer network from port 9 to port 2
R2_9 nt_n_9 nt_c_2 260.31799804428647
X145 nt_p_9 nt_c_2 rl_admittance res=6.828857419536567 ind=5.892455901134532e-07
X146 nt_n_9 nt_c_2 rl_admittance res=5.7893005665287705 ind=2.2129395899315316e-06
X147 nt_p_9 nt_c_2 rl_admittance res=24.233856518920355 ind=2.0343719308105136e-05
X148 nt_n_9 nt_c_2 rl_admittance res=7.502140305305653 ind=0.00025500096858010064
X149 nt_n_9 nt_c_2 rl_admittance res=1.4209649297438829 ind=0.00551653413501011
X150 nt_p_9 nt_c_2 rl_admittance res=1.2107795718184295 ind=0.000403287665165892
* Transfer network from port 10 to port 2
R2_10 nt_n_10 nt_c_2 20.197133834987596
X151 nt_p_10 nt_c_2 rl_admittance res=5.807658758110271 ind=5.011288275414735e-07
X152 nt_n_10 nt_c_2 rl_admittance res=12.12620787000606 ind=4.635199911094885e-06
X153 nt_n_10 nt_c_2 rl_admittance res=25.946684239757936 ind=2.178159554330757e-05
X154 nt_n_10 nt_c_2 rl_admittance res=26.887667781773924 ind=0.0009139233669574745
X155 nt_n_10 nt_c_2 rl_admittance res=2.2184932347335518 ind=0.008612734488741045
X156 nt_p_10 nt_c_2 rl_admittance res=2.0564268838409325 ind=0.0006849567137336445
* Transfer network from port 11 to port 2
R2_11 nt_n_11 nt_c_2 7.918338878519459
X157 nt_p_11 nt_c_2 rl_admittance res=2.804584819234166 ind=2.4200084074167417e-07
X158 nt_n_11 nt_c_2 rl_admittance res=8.074230182679806 ind=3.0863458243602065e-06
X159 nt_n_11 nt_c_2 rl_admittance res=8.967694914984396 ind=7.528156653429424e-06
X160 nt_p_11 nt_c_2 rl_admittance res=17.700479963085424 ind=0.0006016469102460426
X161 nt_n_11 nt_c_2 rl_admittance res=15.159194748297127 ind=0.05885170952341521
X162 nt_p_11 nt_c_2 rl_admittance res=68.66293935084344 ind=0.022870320195971617
* Transfer network from port 12 to port 2
R2_12 nt_n_12 nt_c_2 29.11664426525359
X163 nt_p_12 nt_c_2 rl_admittance res=10.20378857427295 ind=8.804602366772522e-07
X164 nt_n_12 nt_c_2 rl_admittance res=24.539650259509724 ind=9.38019419760468e-06
X165 nt_n_12 nt_c_2 rl_admittance res=49.33801805641684 ind=4.141803801529992e-05
X166 nt_n_12 nt_c_2 rl_admittance res=21.861169417307593 ind=0.000743070530387793
X167 nt_n_12 nt_c_2 rl_admittance res=2.328657267447904 ind=0.009040418264883663
X168 nt_p_12 nt_c_2 rl_admittance res=2.116242394603545 ind=0.0007048801236074417
* Transfer network from port 13 to port 2
R2_13 nt_n_13 nt_c_2 11.421720032076328
X169 nt_p_13 nt_c_2 rl_admittance res=4.2383726441497585 ind=3.657189243222225e-07
X170 nt_n_13 nt_c_2 rl_admittance res=11.84971821306551 ind=4.529512721248876e-06
X171 nt_n_13 nt_c_2 rl_admittance res=14.544369084225108 ind=1.2209635801546778e-05
X172 nt_p_13 nt_c_2 rl_admittance res=16.398141295670353 ind=0.0005573798600316797
X173 nt_p_13 nt_c_2 rl_admittance res=4.094280295936041 ind=0.015894999614734652
X174 nt_n_13 nt_c_2 rl_admittance res=3.3281529113701884 ind=0.0011085444850425904
* Transfer network from port 14 to port 2
R2_14 nt_n_14 nt_c_2 7.242411155883905
X175 nt_p_14 nt_c_2 rl_admittance res=4.1470666633677045 ind=3.57840352077781e-07
X176 nt_p_14 nt_c_2 rl_admittance res=450.6412144602605 ind=0.00017225600448170832
X177 nt_n_14 nt_c_2 rl_admittance res=10.087543220682209 ind=8.46824143031942e-06
X178 nt_n_14 nt_c_2 rl_admittance res=8.471116031453525 ind=0.00028793686935545235
X179 nt_n_14 nt_c_2 rl_admittance res=0.6860893656182168 ind=0.002663567077466514
X180 nt_p_14 nt_c_2 rl_admittance res=0.6371702769370905 ind=0.00021222931017339514
* Transfer network from port 15 to port 2
R2_15 nt_p_15 nt_c_2 18.600132053194102
X181 nt_n_15 nt_c_2 rl_admittance res=29.49651970011329 ind=2.5451833431552116e-06
X182 nt_n_15 nt_c_2 rl_admittance res=42.89035011354757 ind=1.639468407307163e-05
X183 nt_p_15 nt_c_2 rl_admittance res=177.24354132907231 ind=0.00014879154092366562
X184 nt_n_15 nt_c_2 rl_admittance res=34.270610499360416 ind=0.0011648727583764146
X185 nt_n_15 nt_c_2 rl_admittance res=4.737238245448991 ind=0.018391119963393498
X186 nt_p_15 nt_c_2 rl_admittance res=4.200171136355528 ind=0.0013989971835534146
* Transfer network from port 16 to port 2
R2_16 nt_p_16 nt_c_2 22.72209443411551
X187 nt_n_16 nt_c_2 rl_admittance res=20.125699156040586 ind=1.7365979031455249e-06
X188 nt_p_16 nt_c_2 rl_admittance res=130.55409438635823 ind=4.990383912101108e-05
X189 nt_n_16 nt_c_2 rl_admittance res=333.52405169379847 ind=0.0002799851391735015
X190 nt_p_16 nt_c_2 rl_admittance res=76.226153452593 ind=0.0025909596689094
X191 nt_p_16 nt_c_2 rl_admittance res=11.124393424129396 ind=0.04318762185534931
X192 nt_n_16 nt_c_2 rl_admittance res=9.8043938061074 ind=0.003265657249645878

* Port network for port 3
R_ref_3 p3 a3 50.0
H_b_3 a3 0 V_c_3 14.142135623730951
* Differential incident wave a sources for transfer from port 3
H_p_3 nt_p_3 nts_p_3 H_b_3 3.5355339059327378
E_p_3 nts_p_3 0 p3 0 0.07071067811865475
E_n_3 0 nt_n_3 nt_p_3 0 1
* Current sensor on center node for transfer to port 3
V_c_3 nt_c_3 0 0
* Transfer network from port 1 to port 3
R3_1 nt_p_1 nt_c_3 4.442087008590788
X193 nt_n_1 nt_c_3 rl_admittance res=9.911001926495722 ind=8.55196384989082e-07
X194 nt_n_1 nt_c_3 rl_admittance res=6.655991374608841 ind=2.5442290746265926e-06
X195 nt_p_1 nt_c_3 rl_admittance res=24.935005968570373 ind=2.0932316817774135e-05
X196 nt_n_1 nt_c_3 rl_admittance res=5.31397025652499 ind=0.00018062412955158804
X197 nt_n_1 nt_c_3 rl_admittance res=0.7646993475848004 ind=0.002968750294725332
X198 nt_p_1 nt_c_3 rl_admittance res=0.6748541871090088 ind=0.0002247811044894568
* Transfer network from port 2 to port 3
R3_2 nt_p_2 nt_c_3 2.971569900092857
X199 nt_n_2 nt_c_3 rl_admittance res=10.136664175582478 ind=8.746682346647014e-07
X200 nt_n_2 nt_c_3 rl_admittance res=3.4944534922571235 ind=1.3357424423425568e-06
X201 nt_p_2 nt_c_3 rl_admittance res=12.995763090869335 ind=1.0909619618687793e-05
X202 nt_n_2 nt_c_3 rl_admittance res=2.572744511403188 ind=8.744869005622014e-05
X203 nt_n_2 nt_c_3 rl_admittance res=0.35502304951783675 ind=0.001378286494187815
X204 nt_p_2 nt_c_3 rl_admittance res=0.3147863868180074 ind=0.00010484936310511116
* Transfer network from port 3 to port 3
R3_3 nt_n_3 nt_c_3 7.468652346684932
X205 nt_n_3 nt_c_3 rl_admittance res=1.7956501549848956 ind=1.5494230882377887e-07
X206 nt_n_3 nt_c_3 rl_admittance res=2.717505872284293 ind=1.0387569727192617e-06
X207 nt_p_3 nt_c_3 rl_admittance res=10.131366838875584 ind=8.505030266916498e-06
X208 nt_n_3 nt_c_3 rl_admittance res=1.9021765117621057 ind=6.465579596886678e-05
X209 nt_n_3 nt_c_3 rl_admittance res=0.26567108394884936 ind=0.0010314002637300298
X210 nt_p_3 nt_c_3 rl_admittance res=0.23524751916744302 ind=7.835647788360088e-05
* Transfer network from port 4 to port 3
R3_4 nt_p_4 nt_c_3 346.660843572243
X211 nt_p_4 nt_c_3 rl_admittance res=172.17319673739743 ind=1.485640871970825e-05
X212 nt_n_4 nt_c_3 rl_admittance res=47.775073283839085 ind=1.826185216447983e-05
X213 nt_p_4 nt_c_3 rl_admittance res=70.71901342956656 ind=5.936685140617127e-05
X214 nt_n_4 nt_c_3 rl_admittance res=23.09065040836576 ind=0.0007848611169153375
X215 nt_n_4 nt_c_3 rl_admittance res=3.797418386310284 ind=0.014742508920872172
X216 nt_p_4 nt_c_3 rl_admittance res=3.2814560527582253 ind=0.0010929906488873298
* Transfer network from port 5 to port 3
R3_5 nt_p_5 nt_c_3 4.394362643272085
X217 nt_p_5 nt_c_3 rl_admittance res=81.97755104507691 ind=7.073644604647527e-06
X218 nt_n_5 nt_c_3 rl_admittance res=3.6065882242888847 ind=1.3786055455910095e-06
X219 nt_p_5 nt_c_3 rl_admittance res=15.46245001522373 ind=1.298034188985665e-05
X220 nt_n_5 nt_c_3 rl_admittance res=2.655540561560113 ind=9.026296333363285e-05
X221 nt_n_5 nt_c_3 rl_admittance res=0.3596076951035335 ind=0.0013960852120456712
X222 nt_p_5 nt_c_3 rl_admittance res=0.31946696626134286 ind=0.00010640837516582115
* Transfer network from port 6 to port 3
R3_6 nt_p_6 nt_c_3 2.6720431580516113
X223 nt_n_6 nt_c_3 rl_admittance res=28.65820112397462 ind=2.47284686081972e-06
X224 nt_n_6 nt_c_3 rl_admittance res=2.4570961128190154 ind=9.392162666006316e-07
X225 nt_p_6 nt_c_3 rl_admittance res=9.460560526501334 ind=7.941905065676146e-06
X226 nt_n_6 nt_c_3 rl_admittance res=1.9352061501719828 ind=6.577848755334868e-05
X227 nt_n_6 nt_c_3 rl_admittance res=0.2705998222849609 ind=0.001050534833981945
X228 nt_p_6 nt_c_3 rl_admittance res=0.23956882495285922 ind=7.979582271665831e-05
* Transfer network from port 7 to port 3
R3_7 nt_p_7 nt_c_3 55.962845556791095
X229 nt_n_7 nt_c_3 rl_admittance res=35.95867998221667 ind=3.1027875241917134e-06
X230 nt_p_7 nt_c_3 rl_admittance res=83.8751714635187 ind=3.2060986540763945e-05
X231 nt_n_7 nt_c_3 rl_admittance res=321.150465819126 ind=0.00026959782184030946
X232 nt_p_7 nt_c_3 rl_admittance res=57.71936809646144 ind=0.001961906092321392
X233 nt_p_7 nt_c_3 rl_admittance res=7.572644209432413 ind=0.029398860872062556
X234 nt_n_7 nt_c_3 rl_admittance res=6.745478485222798 ind=0.002246790689280155
* Transfer network from port 8 to port 3
R3_8 nt_n_8 nt_c_3 10.592435675336304
X235 nt_p_8 nt_c_3 rl_admittance res=13.986457136213804 ind=1.2068575579345043e-06
X236 nt_p_8 nt_c_3 rl_admittance res=37.42749490757148 ind=1.4306527063352484e-05
X237 nt_n_8 nt_c_3 rl_admittance res=152.1325733766379 ind=0.00012771150840055866
X238 nt_p_8 nt_c_3 rl_admittance res=27.73365389838387 ind=0.0009426787981226698
X239 nt_p_8 nt_c_3 rl_admittance res=3.9290282245825114 ind=0.015253450570545935
X240 nt_n_8 nt_c_3 rl_admittance res=3.474526638111167 ind=0.0011572987916669939
* Transfer network from port 9 to port 3
R3_9 nt_n_9 nt_c_3 29.22840445928682
X241 nt_p_9 nt_c_3 rl_admittance res=5.488315862133113 ind=4.735735014264101e-07
X242 nt_n_9 nt_c_3 rl_admittance res=6.331137239882537 ind=2.420054734837593e-06
X243 nt_p_9 nt_c_3 rl_admittance res=60.29259192090297 ind=5.0614130088594865e-05
X244 nt_n_9 nt_c_3 rl_admittance res=13.946876064702046 ind=0.00047406030285123367
X245 nt_n_9 nt_c_3 rl_admittance res=3.474520721891214 ind=0.013488941045552478
X246 nt_p_9 nt_c_3 rl_admittance res=2.833810448856812 ind=0.0009438884054888516
* Transfer network from port 10 to port 3
R3_10 nt_n_10 nt_c_3 10.620604630749224
X247 nt_p_10 nt_c_3 rl_admittance res=4.571422556549285 ind=3.944569957318919e-07
X248 nt_n_10 nt_c_3 rl_admittance res=14.248760434563405 ind=5.446538093979384e-06
X249 nt_n_10 nt_c_3 rl_admittance res=19.371290845052386 ind=1.6261716465958897e-05
X250 nt_n_10 nt_c_3 rl_admittance res=18.3624321332734 ind=0.0006241469485927335
X251 nt_n_10 nt_c_3 rl_admittance res=1.6478226318443407 ind=0.00639725133726555
X252 nt_p_10 nt_c_3 rl_admittance res=1.5185309312186357 ind=0.000505793794335001
* Transfer network from port 11 to port 3
R3_11 nt_n_11 nt_c_3 6.8196966855210635
X253 nt_p_11 nt_c_3 rl_admittance res=2.0087185399670724 ind=1.7332746442596796e-07
X254 nt_n_11 nt_c_3 rl_admittance res=4.804434873621318 ind=1.836478175024025e-06
X255 nt_n_11 nt_c_3 rl_admittance res=6.7600783140684815 ind=5.674917469897799e-06
X256 nt_p_11 nt_c_3 rl_admittance res=19.157960580240328 ind=0.0006511873019124552
X257 nt_n_11 nt_c_3 rl_admittance res=6.260011535323032 ind=0.024302899105603504
X258 nt_p_11 nt_c_3 rl_admittance res=8.89524074043971 ind=0.0029628356414312007
* Transfer network from port 12 to port 3
R3_12 nt_n_12 nt_c_3 14.324588882165326
X259 nt_p_12 nt_c_3 rl_admittance res=7.256362009714163 ind=6.261339272157532e-07
X260 nt_n_12 nt_c_3 rl_admittance res=25.869929638054373 ind=9.888688767651865e-06
X261 nt_n_12 nt_c_3 rl_admittance res=39.40060853628132 ind=3.307583008939711e-05
X262 nt_n_12 nt_c_3 rl_admittance res=14.938444727526132 ind=0.0005077641472401471
X263 nt_n_12 nt_c_3 rl_admittance res=1.7296618924481002 ind=0.006714971405688352
X264 nt_p_12 nt_c_3 rl_admittance res=1.559760413665398 ind=0.0005195265513941417
* Transfer network from port 13 to port 3
R3_13 nt_n_13 nt_c_3 7.516799637098418
X265 nt_p_13 nt_c_3 rl_admittance res=2.791603590195276 ind=2.4088072188496244e-07
X266 nt_n_13 nt_c_3 rl_admittance res=7.3164717063335125 ind=2.7966953367679974e-06
X267 nt_n_13 nt_c_3 rl_admittance res=10.597008870406997 ind=8.895925161426376e-06
X268 nt_p_13 nt_c_3 rl_admittance res=13.23299579714078 ind=0.00044979520618947143
X269 nt_p_13 nt_c_3 rl_admittance res=3.098619128105979 ind=0.012029598925198589
X270 nt_n_13 nt_c_3 rl_admittance res=2.5482235704440046 ind=0.0008487648437127465
* Transfer network from port 14 to port 3
R3_14 nt_n_14 nt_c_3 5.079220420315103
X271 nt_p_14 nt_c_3 rl_admittance res=2.2695209250792634 ind=1.9583147144752005e-07
X272 nt_n_14 nt_c_3 rl_admittance res=11.120576141177501 ind=4.250800752674554e-06
X273 nt_n_14 nt_c_3 rl_admittance res=6.896245020171284 ind=5.7892260301511735e-06
X274 nt_n_14 nt_c_3 rl_admittance res=6.119800324558468 ind=0.00020801463939238384
X275 nt_n_14 nt_c_3 rl_admittance res=0.5273757952991937 ind=0.00204740209687686
X276 nt_p_14 nt_c_3 rl_admittance res=0.4876206831949602 ind=0.0001624171826065321
* Transfer network from port 15 to port 3
R3_15 nt_p_15 nt_c_3 15.403195451324013
X277 nt_n_15 nt_c_3 rl_admittance res=25.62519085376202 ind=2.2111357403944128e-06
X278 nt_n_15 nt_c_3 rl_admittance res=33.23062911411534 ind=1.27022900123926e-05
X279 nt_p_15 nt_c_3 rl_admittance res=140.62851618606658 ind=0.00011805413875298931
X280 nt_n_15 nt_c_3 rl_admittance res=25.50596580441015 ind=0.0008669587237785639
X281 nt_n_15 nt_c_3 rl_admittance res=3.533600816849522 ind=0.013718304454680308
X282 nt_p_15 nt_c_3 rl_admittance res=3.1319661835747667 ind=0.0010431984144359276
* Transfer network from port 16 to port 3
R3_16 nt_p_16 nt_c_3 59.86092277113375
X283 nt_n_16 nt_c_3 rl_admittance res=38.18256802536646 ind=3.294681444627525e-06
X284 nt_p_16 nt_c_3 rl_admittance res=85.30267568638777 ind=3.2606644962412544e-05
X285 nt_n_16 nt_c_3 rl_admittance res=301.85451211906724 ind=0.00025339934903224827
X286 nt_p_16 nt_c_3 rl_admittance res=63.99757853519416 ind=0.0021753051594775104
X287 nt_p_16 nt_c_3 rl_admittance res=8.976440354622612 ind=0.03484874157737536
X288 nt_n_16 nt_c_3 rl_admittance res=7.939415249727489 ind=0.002644468335418227

* Port network for port 4
R_ref_4 p4 a4 50.0
H_b_4 a4 0 V_c_4 14.142135623730951
* Differential incident wave a sources for transfer from port 4
H_p_4 nt_p_4 nts_p_4 H_b_4 3.5355339059327378
E_p_4 nts_p_4 0 p4 0 0.07071067811865475
E_n_4 0 nt_n_4 nt_p_4 0 1
* Current sensor on center node for transfer to port 4
V_c_4 nt_c_4 0 0
* Transfer network from port 1 to port 4
R4_1 nt_p_1 nt_c_4 255.8311912549191
X289 nt_n_1 nt_c_4 rl_admittance res=1115.1400796181651 ind=9.622274033631263e-05
X290 nt_n_1 nt_c_4 rl_admittance res=147.79542892236853 ind=5.649427804183359e-05
X291 nt_p_1 nt_c_4 rl_admittance res=238.47761354923884 ind=0.00020019602028776168
X292 nt_n_1 nt_c_4 rl_admittance res=90.92895745012903 ind=0.0030907142866101033
X293 nt_n_1 nt_c_4 rl_admittance res=16.83832560338357 ind=0.06537050705693537
X294 nt_p_1 nt_c_4 rl_admittance res=14.296862419835863 ind=0.004762013167957735
* Transfer network from port 2 to port 4
R4_2 nt_p_2 nt_c_4 31.77803869277852
X295 nt_n_2 nt_c_4 rl_admittance res=36.42483514484782 ind=3.1430109257088102e-06
X296 nt_n_2 nt_c_4 rl_admittance res=85.18843144068136 ind=3.256297550505058e-05
X297 nt_p_2 nt_c_4 rl_admittance res=110.66776407014355 ind=9.290283314753673e-05
X298 nt_n_2 nt_c_4 rl_admittance res=33.24622056734784 ind=0.0011300533049622777
X299 nt_n_2 nt_c_4 rl_admittance res=5.282849505480601 ind=0.020509316603864253
X300 nt_p_2 nt_c_4 rl_admittance res=4.585961814945389 ind=0.001527496726849807
* Transfer network from port 3 to port 4
R4_3 nt_p_3 nt_c_4 344.6468699589061